data_crystal

_audit_creation_method 'AiiDA-DDEC plugin'

_cell_length_a         6.95432
_cell_length_b        15.11257
_cell_length_c        15.16674

_cell_angle_alpha     63.66495
_cell_angle_beta     81.04598
_cell_angle_gamma     99.05312

_symmetry_space_group_name_Hall 'P 1'
_symmetry_space_group_name_H-M  'P 1'

loop_
_symmetry_equiv_pos_as_xyz
 'x,y,z'

loop_
_atom_site_label
_atom_site_type_symbol
_atom_site_fract_x
_atom_site_fract_y
_atom_site_fract_z
_atom_site_charge
Mg         Mg      0.28742   0.26621   0.32090   1.54209
Mg         Mg      0.61159   0.32442   0.40608   1.54252
Mg         Mg      0.01912   0.40714   0.26492   1.54247
Mg         Mg      0.71361   0.73769   0.67709   1.54221
Mg         Mg      0.38499   0.67171   0.59737   1.54078
Mg         Mg      0.97676   0.59510   0.73826   1.54026
H          H       0.31214   0.46757   0.55551   0.13609
H          H       0.86486   0.56033   0.97964   0.13853
H          H       0.84734   0.97673   0.46863   0.13763
H          H       0.68038   0.52344   0.45534   0.13799
H          H       0.13384   0.45007   0.02140   0.13786
H          H       0.15839   0.02301   0.52267   0.13700
C          C       0.24407   0.39210   0.43393   0.66713
C          C       0.11437   0.44651   0.46718  -0.15867
C          C       0.93182   0.46190   0.43721   0.32547
C          C       0.17309   0.48034   0.53380  -0.20535
C          C       0.67866   0.43663   0.17174   0.66729
C          C       0.58002   0.46860   0.08630  -0.15911
C          C       0.36759   0.43543   0.10010   0.32224
C          C       0.70418   0.53618   0.98836  -0.20669
C          C       0.85398   0.17171   0.38841   0.66672
C          C       0.66997   0.08580   0.44409  -0.16173
C          C       0.47162   0.10089   0.45892   0.32894
C          C       0.69543   0.98640   0.48082  -0.20562
C          C       0.74859   0.60107   0.57421   0.66673
C          C       0.87861   0.54542   0.54312  -0.16211
C          C       0.06115   0.53000   0.57328   0.32397
C          C       0.81948   0.51091   0.47708  -0.20688
C          C       0.31815   0.57269   0.83082   0.66688
C          C       0.41841   0.54175   0.91542  -0.15872
C          C       0.63114   0.57396   0.90118   0.32342
C          C       0.29439   0.47399   0.01315  -0.20666
C          C       0.15023   0.82959   0.60490   0.66996
C          C       0.33569   0.91426   0.54735  -0.16174
C          C       0.53401   0.89890   0.53282   0.32512
C          C       0.31035   0.01359   0.51014  -0.20493
O          O       0.19656   0.36381   0.36935  -0.80583
O          O       0.39751   0.37386   0.46805  -0.65460
O          O       0.86211   0.43156   0.37374  -0.84754
O          O       0.56805   0.37257   0.26252  -0.80551
O          O       0.86713   0.47102   0.15585  -0.65393
O          O       0.23439   0.37007   0.19105  -0.84332
O          O       0.83377   0.26367   0.35848  -0.80429
O          O       0.02619   0.15509   0.37142  -0.65544
O          O       0.43234   0.19374   0.42684  -0.84808
O          O       0.79619   0.63344   0.63601  -0.80862
O          O       0.59382   0.61669   0.54046  -0.65282
O          O       0.13076   0.56082   0.63647  -0.83993
O          O       0.42708   0.63542   0.73932  -0.80767
O          O       0.12928   0.53829   0.84810  -0.65317
O          O       0.76425   0.63647   0.80940  -0.84384
O          O       0.16581   0.73682   0.63593  -0.80841
O          O       0.98025   0.84804   0.62304  -0.65542
O          O       0.57292   0.80576   0.56714  -0.84269

