data_crystal

_audit_creation_method 'AiiDA-DDEC plugin'

_cell_length_a        26.06194
_cell_length_b        26.04379
_cell_length_c        26.11627

_cell_angle_alpha     90.01895
_cell_angle_beta     89.83747
_cell_angle_gamma     90.29639

_symmetry_space_group_name_Hall 'P 1'
_symmetry_space_group_name_H-M  'P 1'

loop_
_symmetry_equiv_pos_as_xyz
 'x,y,z'

loop_
_atom_site_label
_atom_site_type_symbol
_atom_site_fract_x
_atom_site_fract_y
_atom_site_fract_z
_atom_site_charge
Zn         Zn      0.29447   0.20514   0.20632   0.96397
Zn         Zn      0.70684   0.79243   0.20619   0.96084
Zn         Zn      0.70651   0.20685   0.79393   0.96076
Zn         Zn      0.29328   0.79321   0.79394   0.96140
Zn         Zn      0.20929   0.29334   0.20424   0.96267
Zn         Zn      0.20517   0.70694   0.79375   0.96471
Zn         Zn      0.79207   0.70466   0.20650   0.96308
Zn         Zn      0.79324   0.29456   0.79355   0.96316
Zn         Zn      0.20740   0.20707   0.29402   0.96226
Zn         Zn      0.79306   0.20695   0.70597   0.96243
Zn         Zn      0.20707   0.79354   0.70629   0.95624
Zn         Zn      0.79072   0.79065   0.29389   0.95149
Zn         Zn      0.20671   0.29107   0.79408   0.95769
Zn         Zn      0.79293   0.70655   0.79386   0.96085
Zn         Zn      0.20426   0.70680   0.20633   0.96392
Zn         Zn      0.79570   0.29077   0.20611   0.96035
Zn         Zn      0.29360   0.20688   0.79174   0.95575
Zn         Zn      0.70708   0.20438   0.20652   0.96280
Zn         Zn      0.70650   0.79298   0.79401   0.96235
Zn         Zn      0.29051   0.79437   0.20615   0.95702
Zn         Zn      0.20679   0.20676   0.70459   0.96358
Zn         Zn      0.20413   0.79300   0.29416   0.95679
Zn         Zn      0.79565   0.20463   0.29383   0.96584
Zn         Zn      0.79287   0.79355   0.70596   0.96111
Zn         Zn      0.29289   0.70647   0.70611   0.95970
Zn         Zn      0.70671   0.29299   0.70603   0.95525
Zn         Zn      0.70230   0.70446   0.29358   0.97000
Zn         Zn      0.29343   0.29379   0.29207   0.95603
Zn         Zn      0.29253   0.70897   0.29372   0.96193
Zn         Zn      0.70648   0.70694   0.70612   0.95268
Zn         Zn      0.70888   0.29067   0.29345   0.95796
Zn         Zn      0.29384   0.29480   0.70627   0.96277
O          O       0.25071   0.24956   0.24899  -1.01020
O          O       0.74755   0.74720   0.25014  -1.01069
O          O       0.75008   0.25017   0.75010  -1.00916
O          O       0.24983   0.74992   0.75009  -1.00868
O          O       0.25001   0.25004   0.74853  -1.00867
O          O       0.75000   0.74996   0.75009  -1.00782
O          O       0.24756   0.75041   0.24998  -1.00952
O          O       0.75218   0.24738   0.24966  -1.01022
O          O       0.28395   0.21617   0.13230  -0.54378
O          O       0.72141   0.77814   0.13357  -0.54724
O          O       0.72369   0.21603   0.86703  -0.54650
O          O       0.28406   0.77634   0.86720  -0.54522
O          O       0.13540   0.27868   0.21277  -0.54170
O          O       0.13270   0.72342   0.78061  -0.54904
O          O       0.86481   0.71608   0.22236  -0.54746
O          O       0.86686   0.28394   0.77808  -0.54647
O          O       0.21642   0.13306   0.28199  -0.54075
O          O       0.77852   0.13329   0.71778  -0.54595
O          O       0.22111   0.86690   0.71960  -0.54453
O          O       0.77608   0.86464   0.28746  -0.53942
O          O       0.21886   0.27620   0.86715  -0.54475
O          O       0.77850   0.71669   0.86721  -0.54286
O          O       0.22128   0.71392   0.13300  -0.54436
O          O       0.78660   0.27411   0.13296  -0.54544
O          O       0.27126   0.13489   0.78530  -0.55038
O          O       0.71602   0.13068   0.22216  -0.54407
O          O       0.71830   0.86668   0.78046  -0.54766
O          O       0.27595   0.86708   0.21984  -0.54795
O          O       0.13299   0.21864   0.71722  -0.54703
O          O       0.13131   0.77372   0.28517  -0.54716
O          O       0.86948   0.21595   0.28025  -0.54577
O          O       0.86575   0.78347   0.72251  -0.54562
O          O       0.71916   0.78101   0.86756  -0.54277
O          O       0.29053   0.22627   0.86490  -0.54357
O          O       0.28085   0.77870   0.13284  -0.54241
O          O       0.72093   0.21586   0.13294  -0.54660
O          O       0.86669   0.72154   0.78457  -0.54301
O          O       0.86910   0.27903   0.21960  -0.54475
O          O       0.13317   0.27892   0.78067  -0.54489
O          O       0.13066   0.72385   0.21320  -0.54484
O          O       0.77623   0.86697   0.71480  -0.54627
O          O       0.21172   0.86693   0.27965  -0.54049
O          O       0.77665   0.13202   0.28503  -0.55115
O          O       0.22116   0.13297   0.71387  -0.54413
O          O       0.78559   0.71869   0.13265  -0.54018
O          O       0.22888   0.28393   0.13216  -0.54915
O          O       0.78385   0.28014   0.86723  -0.54397
O          O       0.21592   0.72109   0.86722  -0.54837
O          O       0.72108   0.86516   0.21976  -0.54862
O          O       0.27883   0.86720   0.78509  -0.54609
O          O       0.27870   0.13272   0.22017  -0.54785
O          O       0.71400   0.13318   0.77738  -0.54416
O          O       0.86456   0.78180   0.28006  -0.54294
O          O       0.86652   0.22294   0.71523  -0.54711
O          O       0.13279   0.78376   0.71735  -0.54143
O          O       0.13535   0.22398   0.28117  -0.54926
O          O       0.27611   0.71381   0.63266  -0.54352
O          O       0.71856   0.28132   0.63241  -0.54293
O          O       0.71254   0.71863   0.36738  -0.54700
O          O       0.27639   0.28641   0.36536  -0.54598
O          O       0.21605   0.63315   0.78068  -0.54788
O          O       0.77607   0.63214   0.21989  -0.54912
O          O       0.21861   0.36722   0.21988  -0.54689
O          O       0.77631   0.36725   0.78271  -0.54818
O          O       0.22123   0.78594   0.36746  -0.54318
O          O       0.78396   0.21891   0.36731  -0.54598
O          O       0.22146   0.22147   0.63216  -0.54605
O          O       0.78376   0.77908   0.63238  -0.54624
O          O       0.28566   0.63514   0.27724  -0.54363
O          O       0.71691   0.63307   0.71784  -0.54168
O          O       0.72908   0.36365   0.28668  -0.54604
O          O       0.28130   0.36718   0.72236  -0.54578
O          O       0.71378   0.27097   0.36594  -0.54765
O          O       0.27381   0.71612   0.36662  -0.54753
O          O       0.28352   0.28378   0.63243  -0.54229
O          O       0.71845   0.72054   0.63292  -0.54306
O          O       0.78335   0.36478   0.21780  -0.54329
O          O       0.21885   0.36533   0.78386  -0.54409
O          O       0.77621   0.63326   0.78224  -0.54688
O          O       0.21382   0.63468   0.22730  -0.55011
O          O       0.77908   0.21844   0.63268  -0.54758
O          O       0.22354   0.78369   0.63316  -0.54546
O          O       0.77896   0.77606   0.36677  -0.54434
O          O       0.22385   0.21617   0.36721  -0.54506
O          O       0.71858   0.36679   0.71721  -0.54163
O          O       0.28402   0.36741   0.27760  -0.54468
O          O       0.28146   0.63295   0.72240  -0.54584
O          O       0.71512   0.63033   0.28277  -0.54429
O          O       0.63313   0.27880   0.71738  -0.54478
O          O       0.63024   0.72091   0.27793  -0.55115
O          O       0.36655   0.72142   0.71524  -0.54532
O          O       0.36719   0.27911   0.28277  -0.54380
O          O       0.63371   0.21867   0.21959  -0.54722
O          O       0.63309   0.77708   0.78264  -0.54971
O          O       0.36675   0.21119   0.77260  -0.54318
O          O       0.36460   0.78424   0.21753  -0.54210
O          O       0.36488   0.72885   0.28514  -0.54878
O          O       0.36715   0.28125   0.72001  -0.54775
O          O       0.63528   0.28623   0.27517  -0.54438
O          O       0.63286   0.72122   0.71527  -0.54125
O          O       0.36688   0.78109   0.77952  -0.54505
O          O       0.36758   0.21853   0.21975  -0.54880
O          O       0.63250   0.78378   0.21718  -0.54339
O          O       0.63308   0.22357   0.78522  -0.54805
C          C       0.25693   0.25037   0.11005   0.59862
C          C       0.75328   0.74851   0.11103   0.59342
C          C       0.75433   0.24742   0.88915   0.59679
C          C       0.25025   0.74840   0.88936   0.59763
C          C       0.11330   0.25118   0.24702   0.59720
C          C       0.11055   0.75400   0.74959   0.59679
C          C       0.88688   0.74927   0.25100   0.59685
C          C       0.88881   0.25329   0.74679   0.59834
C          C       0.24742   0.11084   0.25118   0.59504
C          C       0.74566   0.11119   0.74701   0.59570
C          C       0.24988   0.88926   0.75233   0.59643
C          C       0.74757   0.88707   0.25473   0.59382
C          C       0.25551   0.25150   0.88819   0.59550
C          C       0.74913   0.74904   0.88942   0.59215
C          C       0.25116   0.74627   0.11091   0.59384
C          C       0.75420   0.24461   0.11085   0.59736
C          C       0.24663   0.11167   0.74981   0.59825
C          C       0.74560   0.10925   0.25468   0.60019
C          C       0.74657   0.88896   0.74700   0.59937
C          C       0.24417   0.88905   0.25005   0.59550
C          C       0.11094   0.24919   0.74863   0.59786
C          C       0.10885   0.74908   0.24922   0.59689
C          C       0.89139   0.24778   0.24980   0.59636
C          C       0.88830   0.75317   0.75362   0.59511
C          C       0.24944   0.74859   0.61079   0.59495
C          C       0.74859   0.24948   0.61041   0.59573
C          C       0.74581   0.74752   0.38914   0.59739
C          C       0.25092   0.25127   0.38849   0.59600
C          C       0.24891   0.61087   0.75182   0.59915
C          C       0.74655   0.60906   0.25166   0.59673
C          C       0.25109   0.38963   0.24906   0.59665
C          C       0.74713   0.38917   0.75016   0.59620
C          C       0.24739   0.75070   0.38919   0.59597
C          C       0.74861   0.24518   0.38879   0.59873
C          C       0.25287   0.25235   0.61024   0.59468
C          C       0.75082   0.74989   0.61049   0.59549
C          C       0.24989   0.61268   0.25207   0.59570
C          C       0.74621   0.61113   0.75035   0.59463
C          C       0.75583   0.38640   0.25227   0.59408
C          C       0.24981   0.38839   0.75340   0.59605
C          C       0.61099   0.25068   0.75102   0.59732
C          C       0.60921   0.75330   0.24791   0.59831
C          C       0.38879   0.75113   0.74746   0.59569
C          C       0.38962   0.24937   0.25097   0.59712
C          C       0.61226   0.25267   0.24766   0.59530
C          C       0.61084   0.74925   0.74890   0.59597
C          C       0.38909   0.24645   0.74649   0.59531
C          C       0.38694   0.75682   0.25125   0.59800
C          C       0.25780   0.25131   0.05273  -0.03458
C          C       0.75261   0.74892   0.05380  -0.03374
C          C       0.75541   0.24575   0.94638  -0.03513
C          C       0.25077   0.74751   0.94662  -0.03455
C          C       0.05598   0.25045   0.24753  -0.03653
C          C       0.05318   0.75478   0.75126  -0.03587
C          C       0.94422   0.74979   0.25044  -0.03757
C          C       0.94619   0.25269   0.74701  -0.03594
C          C       0.24697   0.05355   0.25123  -0.03371
C          C       0.74446   0.05379   0.74580  -0.03387
C          C       0.24936   0.94672   0.75198  -0.03497
C          C       0.74529   0.94438   0.25691  -0.03213
C          C       0.25711   0.25204   0.94543  -0.03304
C          C       0.75024   0.74924   0.94666  -0.03413
C          C       0.25132   0.74624   0.05372  -0.03374
C          C       0.75515   0.24405   0.05358  -0.03425
C          C       0.24758   0.05426   0.75056  -0.03247
C          C       0.74414   0.05186   0.25693  -0.03586
C          C       0.74499   0.94633   0.74582  -0.03550
C          C       0.24523   0.94635   0.25060  -0.03377
C          C       0.05359   0.25033   0.74797  -0.03478
C          C       0.05154   0.74967   0.24947  -0.03423
C          C       0.94870   0.24869   0.24926  -0.03272
C          C       0.94572   0.75446   0.75356  -0.03431
C          C       0.24845   0.74854   0.55357  -0.03419
C          C       0.74815   0.24831   0.55319  -0.03173
C          C       0.74661   0.74829   0.44633  -0.03594
C          C       0.25252   0.25119   0.44574  -0.03619
C          C       0.24912   0.55338   0.75260  -0.03765
C          C       0.74916   0.55159   0.25220  -0.03421
C          C       0.25068   0.44720   0.24991  -0.03492
C          C       0.74619   0.44646   0.75069  -0.03284
C          C       0.24741   0.74975   0.44641  -0.03373
C          C       0.74798   0.24588   0.44603  -0.03647
C          C       0.25351   0.25170   0.55298  -0.03417
C          C       0.74977   0.74964   0.55331  -0.03539
C          C       0.25019   0.55510   0.25149  -0.03350
C          C       0.74550   0.55378   0.75100  -0.03335
C          C       0.75433   0.44393   0.25252  -0.03459
C          C       0.24955   0.44581   0.75358  -0.03455
C          C       0.55368   0.24947   0.75005  -0.03455
C          C       0.55183   0.75537   0.24901  -0.03412
C          C       0.44615   0.75066   0.74765  -0.03455
C          C       0.44709   0.25070   0.25012  -0.03403
C          C       0.55475   0.25264   0.24820  -0.03338
C          C       0.55350   0.74960   0.74862  -0.03284
C          C       0.44642   0.24709   0.74730  -0.03399
C          C       0.44434   0.75710   0.25092  -0.03539
C          C       0.29110   0.21919   0.02522  -0.09746
C          C       0.71903   0.78179   0.02773  -0.09407
C          C       0.71810   0.21711   0.97294  -0.09618
C          C       0.28930   0.77392   0.97356  -0.09816
C          C       0.02830   0.28075   0.21293  -0.09586
C          C       0.02672   0.72404   0.78689  -0.09522
C          C       0.97081   0.71673   0.21733  -0.09570
C          C       0.97362   0.28377   0.78146  -0.09854
C          C       0.21387   0.02682   0.28444  -0.09739
C          C       0.77277   0.02704   0.70865  -0.09838
C          C       0.21838   0.97269   0.71658  -0.09477
C          C       0.77868   0.97189   0.28903  -0.09796
C          C       0.22399   0.28433   0.97295  -0.09417
C          C       0.78389   0.71642   0.97269  -0.09808
C          C       0.21297   0.71958   0.02681  -0.09847
C          C       0.79288   0.27217   0.02701  -0.09632
C          C       0.27855   0.02832   0.78599  -0.09805
C          C       0.70975   0.02429   0.22592  -0.09386
C          C       0.71613   0.97308   0.78255  -0.09789
C          C       0.27869   0.97309   0.21775  -0.09791
C          C       0.02616   0.21934   0.71347  -0.09507
C          C       0.02500   0.78270   0.28269  -0.09503
C          C       0.97639   0.21835   0.28381  -0.09649
C          C       0.97220   0.78566   0.71836  -0.09698
C          C       0.71796   0.78207   0.97444  -0.09548
C          C       0.29101   0.21983   0.97187  -0.09533
C          C       0.28943   0.77346   0.02684  -0.09686
C          C       0.71788   0.21633   0.02624  -0.09619
C          C       0.97332   0.72382   0.78798  -0.09804
C          C       0.97491   0.28000   0.21394  -0.09623
C          C       0.02701   0.28254   0.78195  -0.09649
C          C       0.02418   0.71689   0.21663  -0.09809
C          C       0.77290   0.97359   0.70854  -0.09576
C          C       0.21296   0.97341   0.28406  -0.09915
C          C       0.77816   0.02537   0.28896  -0.09786
C          C       0.21762   0.02611   0.71573  -0.09622
C          C       0.78517   0.71635   0.02596  -0.09773
C          C       0.22467   0.28429   0.02623  -0.09455
C          C       0.79294   0.27316   0.97371  -0.09807
C          C       0.21259   0.72038   0.97352  -0.09642
C          C       0.71039   0.97086   0.22584  -0.10028
C          C       0.27956   0.97484   0.78660  -0.09531
C          C       0.27950   0.02649   0.21800  -0.09843
C          C       0.71574   0.02652   0.78246  -0.09424
C          C       0.97158   0.78297   0.28294  -0.09679
C          C       0.97277   0.22051   0.71303  -0.09706
C          C       0.02562   0.78581   0.71721  -0.09807
C          C       0.02977   0.21936   0.28305  -0.09280
C          C       0.27955   0.71446   0.52588  -0.09805
C          C       0.71166   0.27665   0.52580  -0.09892
C          C       0.71250   0.71748   0.47458  -0.09438
C          C       0.28157   0.28816   0.47220  -0.09621
C          C       0.21432   0.52626   0.78378  -0.09691
C          C       0.78144   0.52594   0.21752  -0.09773
C          C       0.21676   0.47450   0.21844  -0.09528
C          C       0.77215   0.47360   0.78927  -0.09992
C          C       0.21606   0.78359   0.47410  -0.09679
C          C       0.78448   0.21760   0.47347  -0.09311
C          C       0.22482   0.21447   0.52651  -0.09688
C          C       0.78378   0.78060   0.52505  -0.09732
C          C       0.28422   0.52780   0.28286  -0.09769
C          C       0.71910   0.52662   0.71274  -0.09890
C          C       0.72247   0.46962   0.28755  -0.09493
C          C       0.28440   0.47293   0.72246  -0.09461
C          C       0.71144   0.27522   0.47249  -0.09686
C          C       0.27900   0.71506   0.47259  -0.09710
C          C       0.28220   0.28831   0.52554  -0.09835
C          C       0.71416   0.71813   0.52782  -0.09801
C          C       0.78393   0.47251   0.21757  -0.09878
C          C       0.21460   0.47277   0.78432  -0.09814
C          C       0.77181   0.52702   0.78941  -0.09621
C          C       0.21643   0.52800   0.21934  -0.09720
C          C       0.78441   0.21864   0.52673  -0.09875
C          C       0.21655   0.78295   0.52738  -0.09768
C          C       0.78216   0.77988   0.47181  -0.09756
C          C       0.22446   0.21411   0.47324  -0.09468
C          C       0.71949   0.47321   0.71253  -0.09739
C          C       0.28434   0.47429   0.28219  -0.09876
C          C       0.28425   0.52636   0.72202  -0.09595
C          C       0.71977   0.52302   0.28733  -0.09794
C          C       0.52704   0.28274   0.71736  -0.09771
C          C       0.52442   0.72007   0.27931  -0.09456
C          C       0.47304   0.71814   0.71421  -0.09911
C          C       0.47427   0.28413   0.28256  -0.09334
C          C       0.52753   0.21921   0.21577  -0.09762
C          C       0.52662   0.78197   0.78215  -0.09968
C          C       0.47306   0.21352   0.77971  -0.09683
C          C       0.47169   0.79259   0.22073  -0.09799
C          C       0.47106   0.72102   0.28038  -0.09648
C          C       0.47368   0.28177   0.71619  -0.09878
C          C       0.52774   0.28521   0.28148  -0.09583
C          C       0.52645   0.71768   0.71466  -0.09745
C          C       0.47323   0.78257   0.78160  -0.09466
C          C       0.47411   0.21836   0.21663  -0.09919
C          C       0.52516   0.79186   0.21992  -0.09871
C          C       0.52644   0.21494   0.78134  -0.09775
H          H       0.31668   0.19402   0.04621   0.12590
H          H       0.69413   0.80681   0.04983   0.12363
H          H       0.68931   0.19625   0.95112   0.12604
H          H       0.31869   0.79458   0.95217   0.12630
H          H       0.04924   0.30462   0.18578   0.12569
H          H       0.04864   0.70047   0.81320   0.12555
H          H       0.94901   0.69125   0.19253   0.12636
H          H       0.95249   0.30846   0.80753   0.12623
H          H       0.18929   0.04856   0.31008   0.12629
H          H       0.79449   0.04876   0.68034   0.12644
H          H       0.19530   0.95030   0.69005   0.12395
H          H       0.80514   0.95076   0.31313   0.12644
H          H       0.19812   0.30918   0.95194   0.12309
H          H       0.80865   0.69133   0.95050   0.12625
H          H       0.18369   0.69890   0.04829   0.12616
H          H       0.82160   0.29312   0.04886   0.12593
H          H       0.30165   0.05066   0.81258   0.12574
H          H       0.68326   0.04539   0.20182   0.12352
H          H       0.69461   0.95134   0.81098   0.12621
H          H       0.30358   0.95135   0.19239   0.12668
H          H       0.04730   0.19467   0.68740   0.12330
H          H       0.04681   0.80777   0.30792   0.12381
H          H       0.95548   0.19450   0.31097   0.12329
H          H       0.95032   0.80922   0.69203   0.12619
H          H       0.69230   0.80731   0.95363   0.12360
H          H       0.31671   0.19541   0.94997   0.12238
H          H       0.31878   0.79389   0.04833   0.12595
H          H       0.68893   0.19476   0.04732   0.12323
H          H       0.95230   0.69997   0.81507   0.12634
H          H       0.95279   0.30341   0.18767   0.12331
H          H       0.04886   0.30627   0.80840   0.12604
H          H       0.04548   0.69167   0.19122   0.12576
H          H       0.79459   0.95227   0.68007   0.12403
H          H       0.18758   0.95192   0.30934   0.12670
H          H       0.80426   0.04729   0.31301   0.12600
H          H       0.19402   0.04671   0.68839   0.12284
H          H       0.81104   0.69128   0.04671   0.12563
H          H       0.19951   0.30926   0.04808   0.12333
H          H       0.82164   0.29509   0.95263   0.12559
H          H       0.18295   0.70037   0.95204   0.12612
H          H       0.68446   0.94892   0.20162   0.12623
H          H       0.30350   0.95416   0.81356   0.12326
H          H       0.30499   0.04793   0.19277   0.12675
H          H       0.69389   0.04784   0.81081   0.12328
H          H       0.95034   0.80840   0.30819   0.12616
H          H       0.95092   0.19670   0.68667   0.12621
H          H       0.04672   0.80947   0.69002   0.12651
H          H       0.05195   0.19640   0.30966   0.12227
H          H       0.30397   0.68805   0.54672   0.12671
H          H       0.68381   0.29937   0.54685   0.12652
H          H       0.68513   0.69341   0.45424   0.12331
H          H       0.30324   0.31650   0.45040   0.12617
H          H       0.18739   0.54764   0.80732   0.12626
H          H       0.80423   0.54852   0.19075   0.12588
H          H       0.19098   0.45319   0.19352   0.12283
H          H       0.79228   0.45220   0.81867   0.12710
H          H       0.19169   0.81002   0.45323   0.12574
H          H       0.81258   0.19519   0.45243   0.12279
H          H       0.20299   0.18631   0.54834   0.12608
H          H       0.81108   0.80482   0.54534   0.12613
H          H       0.31019   0.54912   0.30758   0.12527
H          H       0.69888   0.54799   0.68339   0.12652
H          H       0.70001   0.44704   0.31459   0.12513
H          H       0.31126   0.45145   0.69896   0.12302
H          H       0.68338   0.29675   0.45063   0.12576
H          H       0.30293   0.68913   0.45047   0.12619
H          H       0.30436   0.31672   0.54662   0.12570
H          H       0.68820   0.69451   0.55050   0.12663
H          H       0.80862   0.45227   0.19081   0.12623
H          H       0.18800   0.45113   0.80822   0.12565
H          H       0.79175   0.54878   0.81884   0.12591
H          H       0.19034   0.54953   0.19519   0.12511
H          H       0.81228   0.19686   0.54856   0.12550
H          H       0.19259   0.80888   0.54946   0.12585
H          H       0.80812   0.80352   0.44916   0.12673
H          H       0.20254   0.18553   0.45216   0.12367
H          H       0.69960   0.45150   0.68304   0.12649
H          H       0.31031   0.45277   0.30648   0.12632
H          H       0.31109   0.54783   0.69825   0.12591
H          H       0.69513   0.54324   0.31417   0.12541
H          H       0.54884   0.30907   0.69334   0.12646
H          H       0.54568   0.69208   0.30151   0.12358
H          H       0.45150   0.69358   0.68828   0.12653
H          H       0.45296   0.30889   0.30843   0.12255
H          H       0.54886   0.19420   0.19020   0.12598
H          H       0.54822   0.80633   0.80821   0.12676
H          H       0.45129   0.18683   0.80337   0.12573
H          H       0.45045   0.82041   0.19826   0.12549
H          H       0.44938   0.69386   0.30355   0.12598
H          H       0.45241   0.30750   0.69141   0.12643
H          H       0.54928   0.31090   0.30634   0.12268
H          H       0.54794   0.69279   0.68908   0.12678
H          H       0.45177   0.80746   0.80719   0.12325
H          H       0.45256   0.19272   0.19176   0.12614
H          H       0.54687   0.81916   0.19686   0.12565
H          H       0.54770   0.18951   0.80642   0.12596

