data_crystal

_audit_creation_method 'AiiDA-DDEC plugin'

_cell_length_a        18.86481
_cell_length_b        18.84629
_cell_length_c        46.86368

_cell_angle_alpha     90.12898
_cell_angle_beta     90.02018
_cell_angle_gamma     120.19159

_symmetry_space_group_name_Hall 'P 1'
_symmetry_space_group_name_H-M  'P 1'

loop_
_symmetry_equiv_pos_as_xyz
 'x,y,z'

loop_
_atom_site_label
_atom_site_type_symbol
_atom_site_fract_x
_atom_site_fract_y
_atom_site_fract_z
_atom_site_charge
Cu         Cu      0.70998   0.85361   0.35565   0.92225
Cu         Cu      0.14690   0.85271   0.35571   0.92042
Cu         Cu      0.14530   0.28754   0.35489   0.92285
Cu         Cu      0.85415   0.70713   0.64569   0.92121
Cu         Cu      0.84666   0.13937   0.64505   0.92219
Cu         Cu      0.28550   0.14525   0.64621   0.92005
Cu         Cu      0.37105   0.18864   0.68923   0.92108
Cu         Cu      0.80504   0.18328   0.68796   0.91904
Cu         Cu      0.81256   0.62151   0.68860   0.92173
Cu         Cu      0.52552   0.04983   0.97956   0.92028
Cu         Cu      0.52267   0.48383   0.97869   0.92019
Cu         Cu      0.96011   0.48482   0.97899   0.91977
Cu         Cu      0.04629   0.52798   0.02180   0.92131
Cu         Cu      0.48005   0.52646   0.02170   0.92196
Cu         Cu      0.48245   0.96423   0.02240   0.91991
Cu         Cu      0.18929   0.37365   0.31210   0.92151
Cu         Cu      0.18895   0.80995   0.31256   0.92083
Cu         Cu      0.62439   0.80892   0.31250   0.92154
H          H       0.43066   0.56392   0.33460   0.14302
H          H       0.43199   0.86047   0.33441   0.14200
H          H       0.14001   0.56723   0.33419   0.14222
H          H       0.56687   0.43253   0.66771   0.14198
H          H       0.85295   0.42338   0.66495   0.14292
H          H       0.56131   0.13174   0.66728   0.14222
H          H       0.09734   0.90001   0.66773   0.14239
H          H       0.08950   0.19217   0.66756   0.14202
H          H       0.80242   0.89860   0.66753   0.14268
H          H       0.23746   0.77293   0.00040   0.14248
H          H       0.53197   0.77188  -0.00003   0.14217
H          H       0.23963   0.47849   0.99891   0.14257
H          H       0.76761   0.24093   0.00150   0.14227
H          H       0.76486   0.53137   0.00113   0.14258
H          H       0.47394   0.24206   0.00109   0.14275
H          H       0.90139   0.09458   0.33225   0.14251
H          H       0.19917   0.09740   0.33296   0.14238
H          H       0.90411   0.80217   0.33432   0.14257
H          H       0.57516   0.65285   0.41132   0.13777
H          H       0.35425   0.93068   0.41041   0.13423
H          H       0.06121   0.41267   0.40853   0.13799
H          H       0.64842   0.57757   0.59121   0.13552
H          H       0.91108   0.33899   0.58783   0.13724
H          H       0.41835   0.07820   0.59034   0.13728
H          H       0.41745   0.35009   0.59190   0.13428
H          H       0.64261   0.06874   0.59052   0.13703
H          H       0.91636   0.57107   0.58911   0.13825
H          H       0.34762   0.42075   0.41152   0.13808
H          H       0.06182   0.64165   0.40915   0.13517
H          H       0.58467   0.93462   0.40944   0.13411
H          H       0.24791   0.97929   0.74320   0.13471
H          H       0.01357   0.26886   0.74249   0.13451
H          H       0.74523   0.75608   0.74455   0.13803
H          H       0.32563   0.91400   0.92315   0.13806
H          H       0.59605   0.68837   0.92391   0.13445
H          H       0.09186   0.41563   0.92289   0.13701
H          H       0.09515   0.68469   0.92328   0.13711
H          H       0.32072   0.41482   0.92226   0.13817
H          H       0.59558   0.91683   0.92340   0.13554
H          H       0.02261   0.74604   0.74220   0.13419
H          H       0.73750   0.98141   0.74351   0.13765
H          H       0.24029   0.26546   0.74301   0.13482
H          H       0.92685   0.31771   0.07475   0.13942
H          H       0.68113   0.59416   0.07732   0.13789
H          H       0.39527   0.08831   0.07565   0.13475
H          H       0.99357   0.23612   0.25535   0.13715
H          H       0.24573   0.00419   0.25555   0.13764
H          H       0.75710   0.74194   0.25821   0.13891
H          H       0.76384   0.00575   0.25417   0.13813
H          H       0.98612   0.74316   0.25675   0.13511
H          H       0.24622   0.23373   0.25488   0.13762
H          H       0.69683   0.08935   0.07666   0.13554
H          H       0.39073   0.31489   0.07500   0.13421
H          H       0.91022   0.59369   0.07775   0.13868
H          H       0.45885   0.80807   0.43604   0.10729
H          H       0.19230   0.62033   0.43563   0.10784
H          H       0.62428   0.42148   0.56453   0.10901
H          H       0.09515   0.95441   0.76947   0.10782
H          H       0.01610   0.14182   0.76859   0.10829
H          H       0.46264   0.76281   0.89667   0.10921
H          H       0.74643   0.26971   0.10373   0.10891
H          H       0.51600   0.30669   0.10358   0.10830
H          H       0.92123   0.87834   0.23022   0.10919
H          H       0.46057   0.71652   0.47310   0.10592
H          H       0.29282   0.69783   0.47352   0.10160
H          H       0.69989   0.39673   0.52658   0.10530
H          H       0.06946   0.02968   0.80736   0.09929
H          H       0.92241   0.04927   0.80540   0.10609
H          H       0.36190   0.73568   0.85851   0.10453
H          H       0.69845   0.32271   0.14288   0.09872
H          H       0.60797   0.39171   0.14230   0.10125
H          H       0.94435   0.97861   0.19239   0.10490
H          H       0.48347   0.76043   0.52413   0.10807
H          H       0.24927   0.67789   0.52452   0.10711
H          H       0.68215   0.42277   0.47564   0.10368
H          H       0.71999   0.29684   0.47008   0.10010
H          H       0.54199   0.26094   0.47349   0.10325
H          H       0.09446   0.01146   0.85837   0.10758
H          H       0.93989   0.09410   0.85629   0.10663
H          H       0.93716   0.92436   0.86184   0.09882
H          H       0.24975   0.63663   0.80572   0.10411
H          H       0.40400   0.75253   0.80744   0.09961
H          H       0.39184   0.59103   0.80710   0.10511
H          H       0.72721   0.30405   0.19368   0.10047
H          H       0.70202   0.39620   0.19635   0.09593
H          H       0.56060   0.36526   0.19294   0.10348
H          H       0.05623   0.94165   0.13440   0.10078
H          H       0.91222   0.93342   0.14168   0.09847
H          H       0.50346   0.89665   0.53783   0.11461
H          H       0.10480   0.57970   0.53743   0.11453
H          H       0.58675   0.47236   0.46283   0.11245
H          H       0.14333   0.91577   0.87132   0.11229
H          H       0.05418   0.23176   0.87020   0.11441
H          H       0.54863   0.79901   0.79468   0.11185
H          H       0.80024   0.22991   0.20487   0.11527
H          H       0.42022   0.25337   0.20440   0.11516
H          H       0.86038   0.78776   0.12869   0.11306
H          H       0.50100   0.08282   0.40829   0.10842
H          H       0.90658   0.41880   0.40620   0.11038
H          H       0.43427   0.51950   0.59402   0.11087
H          H       0.18980   0.75908   0.74069   0.10864
H          H       0.25008   0.41701   0.74129   0.10997
H          H       0.75059   0.85541   0.92608   0.11109
H          H       0.90407   0.13840   0.07130   0.10817
H          H       0.23874   0.08617   0.07154   0.11059
H          H       0.80309   0.58694   0.25998   0.10941
H          H       0.52674   0.21994   0.42202   0.10826
H          H       0.76343   0.31909   0.41903   0.10717
H          H       0.34201   0.57154   0.58125   0.10873
H          H       0.23566   0.66228   0.75437   0.10691
H          H       0.36526   0.55184   0.75550   0.10807
H          H       0.89458   0.90507   0.91315   0.10920
H          H       0.99525   0.08344   0.08263   0.10626
H          H       0.09942   0.97509   0.08340   0.10720
H          H       0.73020   0.43987   0.24745   0.10943
H          H       0.53271   0.16393   0.51081   0.11437
H          H       0.82073   0.37619   0.50819   0.10943
H          H       0.38937   0.55921   0.49189   0.10793
H          H       0.22187   0.71242   0.84336   0.11030
H          H       0.30016   0.49517   0.84405   0.11462
H          H       0.83418   0.89287   0.82385   0.11047
H          H       0.96050   0.10298   0.17262   0.10922
H          H       0.15134   0.02429   0.17315   0.11286
H          H       0.75011   0.50014   0.15798   0.10393
H          H       0.31770   0.58985   0.52994   0.10088
H          H       0.02633   0.06866   0.13327   0.09587
C          C       0.57026   0.69210   0.35640   0.58350
C          C       0.30782   0.87665   0.35639   0.58341
C          C       0.12137   0.42483   0.35537   0.58197
C          C       0.69253   0.57161   0.64540   0.58208
C          C       0.86694   0.29831   0.64290   0.58521
C          C       0.42342   0.12307   0.64510   0.58371
C          C       0.42387   0.30751   0.64628   0.58293
C          C       0.68512   0.11470   0.64513   0.58414
C          C       0.87255   0.56650   0.64406   0.58472
C          C       0.30564   0.42430   0.35657   0.58627
C          C       0.12038   0.69051   0.35600   0.58346
C          C       0.57504   0.87919   0.35611   0.58399
C          C       0.23683   0.02606   0.68968   0.58320
C          C       0.96635   0.21072   0.68874   0.58400
C          C       0.79132   0.76062   0.68972   0.58454
C          C       0.36470   0.91199   0.97842   0.58357
C          C       0.54762   0.64591   0.97836   0.58414
C          C       0.09925   0.46416   0.97750   0.58545
C          C       0.09775   0.64599   0.97839   0.58393
C          C       0.36358   0.46237   0.97697   0.58434
C          C       0.54688   0.91153   0.97795   0.58269
C          C       0.97452   0.75671   0.68886   0.58363
C          C       0.78475   0.02324   0.68919   0.58537
C          C       0.23129   0.20982   0.68940   0.58233
C          C       0.91156   0.36535   0.02211   0.58616
C          C       0.63943   0.54737   0.02296   0.58564
C          C       0.45687   0.10053   0.02282   0.58219
C          C       0.02901   0.23484   0.31080   0.58464
C          C       0.21089   0.96972   0.31136   0.58481
C          C       0.76242   0.78614   0.31301   0.58404
C          C       0.76327   0.96801   0.31000   0.58621
C          C       0.02891   0.78821   0.31173   0.58494
C          C       0.20984   0.23514   0.31038   0.58396
C          C       0.64462   0.09965   0.02353   0.58494
C          C       0.45293   0.36406   0.02212   0.58366
C          C       0.90571   0.54736   0.02302   0.58552
C          C       0.44019   0.55567   0.35693  -0.09124
C          C       0.44355   0.88252   0.35632  -0.09334
C          C       0.11588   0.55506   0.35579  -0.09648
C          C       0.55618   0.44191   0.64562  -0.09417
C          C       0.87182   0.43332   0.64273  -0.09068
C          C       0.55159   0.11360   0.64496  -0.09156
C          C       0.10900   0.88842   0.68943  -0.09579
C          C       0.10112   0.21521   0.68933  -0.09509
C          C       0.78352   0.88938   0.68974  -0.09191
C          C       0.22899   0.78127   0.97799  -0.09161
C          C       0.55128   0.78096   0.97780  -0.09503
C          C       0.22933   0.45908   0.97672  -0.09075
C          C       0.78095   0.22930   0.02297  -0.09694
C          C       0.77430   0.55053   0.02335  -0.09036
C          C       0.44915   0.22943   0.02259  -0.09533
C          C       0.89434   0.10293   0.30971  -0.09073
C          C       0.21392   0.10421   0.31036  -0.09207
C          C       0.89417   0.78382   0.31201  -0.09515
C          C       0.50987   0.61525   0.37137  -0.03186
C          C       0.38604   0.89529   0.37083  -0.03194
C          C       0.10125   0.48334   0.36975  -0.03270
C          C       0.61461   0.51155   0.63101  -0.03144
C          C       0.88203   0.37447   0.62793  -0.03281
C          C       0.48292   0.10503   0.63035  -0.03028
C          C       0.48502   0.38414   0.63141  -0.03290
C          C       0.60867   0.10011   0.63043  -0.03319
C          C       0.88517   0.50436   0.62863  -0.03284
C          C       0.38201   0.48582   0.37157  -0.03272
C          C       0.10085   0.61158   0.37004  -0.03105
C          C       0.51510   0.89708   0.37042  -0.03388
C          C       0.17937   0.94670   0.70388  -0.03281
C          C       0.04428   0.22986   0.70338  -0.03312
C          C       0.77390   0.82051   0.70447  -0.03211
C          C       0.28828   0.85054   0.96339  -0.03160
C          C       0.56354   0.72269   0.96355  -0.03055
C          C       0.15906   0.44737   0.96244  -0.03173
C          C       0.15938   0.72200   0.96342  -0.03218
C          C       0.28699   0.44679   0.96212  -0.03250
C          C       0.56306   0.85081   0.96320  -0.03156
C          C       0.05287   0.81612   0.70335  -0.03151
C          C       0.77016   0.94698   0.70399  -0.03185
C          C       0.17198   0.22886   0.70366  -0.03204
C          C       0.85381   0.28647   0.03649  -0.03327
C          C       0.71601   0.56246   0.03774  -0.03308
C          C       0.43505   0.15829   0.03682  -0.03038
C          C       0.95418   0.17245   0.29538  -0.03187
C          C       0.22304   0.04424   0.29589  -0.03127
C          C       0.82370   0.77186   0.29788  -0.03110
C          C       0.82562   0.04355   0.29478  -0.03388
C          C       0.95231   0.77308   0.29707  -0.03135
C          C       0.22287   0.17253   0.29544  -0.03241
C          C       0.72461   0.15811   0.03747  -0.02997
C          C       0.43282   0.28543   0.03651  -0.03435
C          C       0.84437   0.56246   0.03791  -0.03230
C          C       0.52140   0.60532   0.40030  -0.12077
C          C       0.40008   0.92215   0.39932  -0.12270
C          C       0.07165   0.46831   0.39787  -0.12644
C          C       0.60215   0.52333   0.60232  -0.12469
C          C       0.90406   0.38560   0.59909  -0.11903
C          C       0.47146   0.08348   0.60139  -0.11965
C          C       0.47273   0.39613   0.60267  -0.12347
C          C       0.59723   0.07799   0.60157  -0.11866
C          C       0.90728   0.51601   0.59979  -0.12039
C          C       0.39340   0.47527   0.40045  -0.11924
C          C       0.07171   0.59642   0.39820  -0.12368
C          C       0.52901   0.92435   0.39882  -0.12324
C          C       0.19360   0.93260   0.73215  -0.12158
C          C       0.05844   0.25824   0.73169  -0.12289
C          C       0.75146   0.80929   0.73328  -0.11891
C          C       0.27851   0.86044   0.93431  -0.11948
C          C       0.58756   0.73456   0.93480  -0.12597
C          C       0.14637   0.42360   0.93371  -0.12062
C          C       0.14916   0.73152   0.93438  -0.11984
C          C       0.27491   0.42331   0.93335  -0.11906
C          C       0.58713   0.86243   0.93447  -0.12573
C          C       0.06755   0.80202   0.73158  -0.12363
C          C       0.74709   0.93582   0.73272  -0.12023
C          C       0.18572   0.25682   0.73200  -0.12322
C          C       0.87054   0.27222   0.06436  -0.12849
C          C       0.72736   0.58579   0.06648  -0.12040
C          C       0.40437   0.14320   0.06479  -0.12430
C          C       0.94614   0.18219   0.26622  -0.11868
C          C       0.23975   0.05171   0.26658  -0.11984
C          C       0.81183   0.74997   0.26891  -0.12872
C          C       0.81710   0.05294   0.26552  -0.11963
C          C       0.94012   0.75085   0.26809  -0.12464
C          C       0.24007   0.18063   0.26619  -0.12090
C          C       0.74160   0.14425   0.06545  -0.12472
C          C       0.40199   0.27000   0.06447  -0.12386
C          C       0.85590   0.58557   0.06672  -0.11913
C          C       0.47463   0.52550   0.44463  -0.11701
C          C       0.48534   0.96279   0.44399  -0.02517
C          C       0.51913   0.47877   0.55741  -0.02369
C          C       0.93774   0.46740   0.55527  -0.11830
C          C       0.51897   0.04944   0.55717  -0.11344
C          C       0.15101   0.84756   0.77674  -0.02483
C          C       0.14226   0.29759   0.77667  -0.02346
C          C       0.71590   0.85656   0.77699  -0.11739
C          C       0.19900   0.80905   0.88984  -0.11709
C          C       0.62463   0.81609   0.88954  -0.02488
C          C       0.19205   0.38844   0.88957  -0.11406
C          C       0.83171   0.18998   0.10923  -0.02672
C          C       0.80756   0.62003   0.11066  -0.11641
C          C       0.35820   0.18342   0.10903  -0.02468
C          C       0.87127   0.13388   0.22124  -0.11689
C          C       0.26471   0.12777   0.22159  -0.11466
C          C       0.85510   0.71414   0.22322  -0.02442
C          C       0.50023   0.04187   0.45164   0.02700
C          C       0.94804   0.45482   0.44980   0.02625
C          C       0.46605   0.50868   0.55031   0.02532
C          C       0.17830   0.79242   0.78415   0.02550
C          C       0.20787   0.37595   0.78449   0.02440
C          C       0.70748   0.84433   0.88244   0.02507
C          C       0.88046   0.15454   0.11546   0.02609
C          C       0.27758   0.12014   0.11554   0.02675
C          C       0.81756   0.62982   0.21623   0.02658
C          C       0.51054   0.06626   0.48128   0.03323
C          C       0.92255   0.44253   0.47931   0.03396
C          C       0.45379   0.52162   0.52077   0.03363
C          C       0.18958   0.77960   0.81381   0.03466
C          C       0.22193   0.39983   0.81418   0.03334
C          C       0.73238   0.85559   0.85290   0.03414
C          C       0.89605   0.14292   0.14477   0.03429
C          C       0.25100   0.10289   0.14492   0.03199
C          C       0.80225   0.60410   0.18674   0.03534
C          C       0.49626   0.50528   0.49902   0.02486
C          C       0.50654   0.01066   0.50257   0.02647
C          C       0.98086   0.48776   0.50104   0.02519
C          C       0.17541   0.82435   0.83528   0.02558
C          C       0.16784   0.34534   0.83529   0.02692
C          C       0.67312   0.83770   0.83118   0.02483
C          C       0.86100   0.16612   0.16716   0.02636
C          C       0.82535   0.66385   0.16488   0.02621
C          C       0.30531   0.15124   0.16714   0.02685
C          C       0.49516   0.93257   0.49472   0.03381
C          C       0.06400   0.54416   0.49386   0.03554
C          C       0.55098   0.47686   0.50631   0.03555
C          C       0.14829   0.87995   0.82782   0.03483
C          C       0.10082   0.26735   0.82732   0.03380
C          C       0.58991   0.80947   0.83835   0.03520
C          C       0.81687   0.20705   0.16080   0.03511
C          C       0.38575   0.21597   0.16053   0.03576
C          C       0.85851   0.74801   0.17208   0.03524
C          C       0.48353   0.90814   0.46508   0.02555
C          C       0.08879   0.55587   0.46429   0.02630
C          C       0.56199   0.46300   0.53587   0.02432
C          C       0.13541   0.89112   0.79818   0.02627
C          C       0.08904   0.24281   0.79769   0.02532
C          C       0.56568   0.79908   0.86796   0.02470
C          C       0.80193   0.21881   0.13144   0.02696
C          C       0.41252   0.23150   0.13117   0.02683
C          C       0.87442   0.77336   0.20162   0.02533
C          C       0.46324   0.53515   0.41519   0.12898
C          C       0.47157   0.93672   0.41357   0.07337
C          C       0.05718   0.52491   0.41234   0.07543
C          C       0.53126   0.46565   0.58793   0.07469
C          C       0.91640   0.45644   0.58464   0.12980
C          C       0.52857   0.06972   0.58666   0.12859
C          C       0.13781   0.86022   0.74624   0.07400
C          C       0.12906   0.27156   0.74625   0.07267
C          C       0.73778   0.86697   0.74770   0.12847
C          C       0.20892   0.80065   0.91946   0.12951
C          C       0.59952   0.80434   0.92008   0.07587
C          C       0.20433   0.41145   0.91881   0.12838
C          C       0.81461   0.20132   0.07905   0.07784
C          C       0.79731   0.59732   0.08136   0.12820
C          C       0.38740   0.19873   0.07888   0.07501
C          C       0.87768   0.12238   0.25090   0.12921
C          C       0.24805   0.11988   0.25135   0.13060
C          C       0.86981   0.73926   0.25381   0.07528
C          C       0.46961   0.82805   0.45817  -0.13699
C          C       0.17300   0.61208   0.45779  -0.13463
C          C       0.61638   0.43298   0.54237  -0.13429
C          C       0.10607   0.94607   0.79164  -0.13503
C          C       0.02396   0.16205   0.79067  -0.13887
C          C       0.48156   0.77114   0.87444  -0.13423
C          C       0.75795   0.26084   0.12579  -0.13462
C          C       0.49468   0.29546   0.12552  -0.13458
C          C       0.90777   0.85855   0.20810  -0.13297
C          C       0.47007   0.77668   0.47891  -0.08941
C          C       0.22914   0.65494   0.47894  -0.08536
C          C       0.65829   0.41891   0.52116  -0.08628
C          C       0.09157   0.98800   0.81278  -0.08428
C          C       0.97181   0.11020   0.81127  -0.09023
C          C       0.42528   0.75546   0.85314  -0.08725
C          C       0.73156   0.29065   0.14765  -0.08454
C          C       0.54623   0.34244   0.14721  -0.09056
C          C       0.92103   0.91444   0.18697  -0.08606
C          C       0.48299   0.80163   0.50798  -0.08755
C          C       0.20434   0.64343   0.50798  -0.08775
C          C       0.64797   0.43350   0.49214  -0.08526
C          C       0.10542   0.97741   0.84185  -0.08720
C          C       0.98201   0.13564   0.84027  -0.08547
C          C       0.44935   0.76531   0.82402  -0.08353
C          C       0.74715   0.27947   0.17645  -0.08716
C          C       0.51926   0.32752   0.17600  -0.08718
C          C       0.90324   0.88879   0.15803  -0.08159
C          C       0.39920   0.55094   0.51422  -0.13501
C          C       0.49431   0.87721   0.51561  -0.13303
C          C       0.12411   0.58929   0.51522  -0.13690
C          C       0.59533   0.46123   0.48498  -0.13571
C          C       0.83904   0.38497   0.48587  -0.13696
C          C       0.52534   0.14623   0.48842  -0.13474
C          C       0.13288   0.92465   0.84912  -0.13467
C          C       0.04521   0.21196   0.84802  -0.13321
C          C       0.81635   0.88497   0.84621  -0.13719
C          C       0.21532   0.72243   0.82088  -0.13651
C          C       0.52948   0.79126   0.81689  -0.13500
C          C       0.28954   0.47832   0.82159  -0.13455
C          C       0.78803   0.23829   0.18283  -0.13224
C          C       0.76133   0.51863   0.18029  -0.13166
C          C       0.44126   0.26562   0.18240  -0.13260
C          C       0.94823   0.11022   0.15045  -0.13642
C          C       0.17023   0.03747   0.15093  -0.13277
C          C       0.87408   0.80799   0.15079  -0.13518
C          C       0.50717   0.10010   0.43067  -0.13682
C          C       0.88788   0.40905   0.42843  -0.13616
C          C       0.42433   0.52798   0.57174  -0.13643
C          C       0.19642   0.74873   0.76309  -0.13405
C          C       0.26121   0.43368   0.76373  -0.13699
C          C       0.76875   0.86336   0.90379  -0.13556
C          C       0.91648   0.13055   0.09337  -0.13308
C          C       0.21999   0.07242   0.09371  -0.13777
C          C       0.79144   0.56799   0.23775  -0.13126
C          C       0.52185   0.17682   0.43838  -0.09098
C          C       0.80804   0.35368   0.43562  -0.09039
C          C       0.37284   0.55703   0.56456  -0.09067
C          C       0.22209   0.69476   0.77074  -0.09029
C          C       0.32542   0.50911   0.77170  -0.09183
C          C       0.84919   0.89140   0.89651  -0.09140
C          C       0.96724   0.10001   0.09972  -0.09092
C          C       0.14222   0.01039   0.10037  -0.09049
C          C       0.75082   0.48598   0.23073  -0.09084
C          C       0.53077   0.20019   0.46760  -0.08480
C          C       0.78327   0.34124   0.46468  -0.08283
C          C       0.35962   0.56812   0.53545  -0.08398
C          C       0.23081   0.68064   0.79998  -0.08568
C          C       0.34029   0.53157   0.80098  -0.08550
C          C       0.87341   0.90243   0.86739  -0.08189
C          C       0.98414   0.09065   0.12859  -0.08006
C          C       0.11734   0.99187   0.12931  -0.08454
C          C       0.73524   0.46115   0.20169  -0.08927
C          C       0.51400   0.03263   0.53176  -0.07470
C          C       0.95670   0.47636   0.53004  -0.07202
C          C       0.48428   0.51701   0.46994  -0.07369
C          C       0.18829   0.81439   0.86440  -0.07173
C          C       0.18085   0.36864   0.86439  -0.07371
C          C       0.69679   0.84816   0.80217  -0.07355
C          C       0.86937   0.14911   0.19600  -0.07251
C          C       0.28063   0.13622   0.19609  -0.07295
C          C       0.81445   0.63965   0.13583  -0.07242
C          C       0.03045   0.51145   0.44271  -0.02605
O          O       0.63291   0.74340   0.37088  -0.54525
O          O       0.25744   0.88901   0.37091  -0.54297
O          O       0.10658   0.36052   0.36940  -0.54419
O          O       0.74354   0.63336   0.63057  -0.54103
O          O       0.88220   0.24881   0.62907  -0.54250
O          O       0.36060   0.11082   0.63061  -0.54375
O          O       0.36054   0.25711   0.63188  -0.54561
O          O       0.73563   0.10333   0.63035  -0.54381
O          O       0.88880   0.63169   0.63038  -0.54510
O          O       0.25423   0.36193   0.37104  -0.54187
O          O       0.10904   0.74129   0.37076  -0.54139
O          O       0.63805   0.89240   0.37074  -0.54016
O          O       0.29920   0.07779   0.70422  -0.53995
O          O       0.91692   0.22570   0.70270  -0.54006
O          O       0.78191   0.69931   0.70442  -0.54500
O          O       0.41542   0.97474   0.96394  -0.54146
O          O       0.56033   0.59561   0.96390  -0.54295
O          O       0.03494   0.44980   0.96357  -0.54562
O          O       0.03455   0.59555   0.96393  -0.54351
O          O       0.41388   0.44977   0.96253  -0.54111
O          O       0.56130   0.97564   0.96389  -0.54217
O          O       0.92499   0.69238   0.70290  -0.54208
O          O       0.77509   0.07489   0.70406  -0.54401
O          O       0.29355   0.22161   0.70413  -0.54384
O          O       0.97504   0.41649   0.03633  -0.54385
O          O       0.58941   0.56015   0.03751  -0.54225
O          O       0.44658   0.03894   0.03759  -0.54192
O          O       0.07801   0.30017   0.29715  -0.54374
O          O       0.22478   0.91982   0.29717  -0.54237
O          O       0.69888   0.77201   0.29861  -0.54553
O          O       0.69966   0.91740   0.29577  -0.54107
O          O       0.07863   0.77495   0.29722  -0.54302
O          O       0.22147   0.29741   0.29574  -0.54210
O          O       0.59378   0.03644   0.03780  -0.54270
O          O       0.44135   0.41516   0.03654  -0.54263
O          O       0.96858   0.55981   0.03750  -0.54518
O          O       0.55383   0.70134   0.33063  -0.53172
O          O       0.29671   0.84876   0.33083  -0.53623
O          O       0.15343   0.44431   0.33048  -0.53334
O          O       0.70313   0.55600   0.67110  -0.53632
O          O       0.83863   0.28811   0.66829  -0.53454
O          O       0.44034   0.15039   0.67070  -0.53325
O          O       0.44014   0.29720   0.67197  -0.53438
O          O       0.69538   0.13985   0.67102  -0.53346
O          O       0.84519   0.54901   0.66959  -0.53243
O          O       0.29693   0.43968   0.33061  -0.53728
O          O       0.14893   0.70211   0.33057  -0.53747
O          O       0.55784   0.85023   0.33070  -0.53913
O          O       0.21851   0.03686   0.66435  -0.53600
O          O       0.95408   0.17905   0.66374  -0.53826
O          O       0.81529   0.77588   0.66377  -0.53222
O          O       0.37426   0.89616   0.00422  -0.53340
O          O       0.52089   0.63538   0.00404  -0.53643
O          O       0.11757   0.49282   0.00290  -0.53177
O          O       0.11397   0.63636   0.00415  -0.53303
O          O       0.37365   0.48867   0.00272  -0.53561
O          O       0.51834   0.89387   0.00334  -0.53540
O          O       0.96188   0.77567   0.66389  -0.53738
O          O       0.80775   0.03187   0.66313  -0.53426
O          O       0.21457   0.18200   0.66383  -0.53322
O          O       0.89236   0.37672   0.99703  -0.53536
O          O       0.62922   0.52160   0.99717  -0.53514
O          O       0.48541   0.11778   0.99739  -0.53409
O          O       0.03905   0.21713   0.33627  -0.53276
O          O       0.18582   0.96061   0.33721  -0.53531
O          O       0.77855   0.81298   0.33871  -0.53267
O          O       0.77910   0.95913   0.33590  -0.53894
O          O       0.03951   0.81462   0.33748  -0.53636
O          O       0.18633   0.22078   0.33639  -0.53730
O          O       0.63250   0.11817   0.99843  -0.53904
O          O       0.48198   0.37520   0.99679  -0.53664
O          O       0.88977   0.52184   0.99718  -0.53437

