data_crystal

_audit_creation_method 'AiiDA-DDEC plugin'

_cell_length_a        17.03067
_cell_length_b        17.11010
_cell_length_c        17.11379

_cell_angle_alpha     89.53080
_cell_angle_beta     91.00011
_cell_angle_gamma     89.65024

_symmetry_space_group_name_Hall 'P 1'
_symmetry_space_group_name_H-M  'P 1'

loop_
_symmetry_equiv_pos_as_xyz
 'x,y,z'

loop_
_atom_site_label
_atom_site_type_symbol
_atom_site_fract_x
_atom_site_fract_y
_atom_site_fract_z
_atom_site_charge
Zn         Zn      0.50121   0.00536   0.75530   0.63497
Zn         Zn      0.00179   0.50212   0.25176   0.63245
Zn         Zn      0.49835   0.99227   0.24990   0.63660
Zn         Zn      0.00079   0.49855   0.74459   0.64194
Zn         Zn      0.75486   0.49486   0.99424   0.63060
Zn         Zn      0.49862   0.25127   0.00592   0.63469
Zn         Zn      0.24759   0.50159   0.00215   0.63369
Zn         Zn      0.50191   0.74563  -0.00159   0.63769
Zn         Zn      0.00236   0.75240   0.49747   0.64357
Zn         Zn      0.99544   0.24855   0.49809   0.63844
Zn         Zn      0.25098   0.00269   0.49842   0.63638
Zn         Zn      0.74775  -0.00128   0.50603   0.63341
H          H       0.38703   0.85799   0.73336   0.10672
H          H       0.85339   0.61822   0.26627   0.10799
H          H       0.61771   0.15029   0.73292   0.10843
H          H       0.53430   0.90745   0.61921   0.14891
H          H       0.62914   0.86791   0.63805   0.13702
H          H       0.60509   0.90520   0.54356   0.15090
H          H       0.15040   0.38689   0.27668   0.10945
H          H       0.91853   0.43762   0.45700   0.15426
H          H       0.88721   0.44502   0.35769   0.14473
H          H       0.87330   0.35666   0.41143   0.14230
H          H       0.38221   0.13796   0.26002   0.10921
H          H       0.15059   0.60969   0.72645   0.10857
H          H       0.62119   0.84940   0.27300   0.10682
H          H       0.54066   0.06423   0.45766   0.14810
H          H       0.55283   0.10836   0.36469   0.14700
H          H       0.62935   0.11343   0.43717   0.14724
H          H       0.84805   0.39090   0.72063   0.10919
H          H       0.08008   0.45915   0.56366   0.15052
H          H       0.12430   0.40810   0.64325   0.14260
H          H       0.10877   0.35998   0.55224   0.14759
H          H       0.73413   0.37048   0.85723   0.10862
H          H       0.38351   0.26914   0.15085   0.11033
H          H       0.44711   0.45648   0.92895   0.14639
H          H       0.43423   0.36236   0.88854   0.14779
H          H       0.35599   0.43218   0.88451   0.14597
H          H       0.26356   0.61824   0.85532   0.10748
H          H       0.62426   0.72527   0.14294   0.10623
H          H       0.54309   0.55121   0.92196   0.14657
H          H       0.57244   0.63902   0.87598   0.14506
H          H       0.63792   0.55725   0.88113   0.14687
H          H       0.74032   0.61064   0.14072   0.10916
H          H       0.61484   0.26061   0.86086   0.10755
H          H       0.53338   0.40524   0.08819   0.14811
H          H       0.62189   0.37390   0.13456   0.13899
H          H       0.61652   0.46839   0.09127   0.14922
H          H       0.26896   0.38571   0.15036   0.10955
H          H       0.38068   0.73016   0.85292   0.10686
H          H       0.45294   0.54631   0.07707   0.15098
H          H       0.43454   0.63924   0.11827   0.14508
H          H       0.36040   0.56608   0.11850   0.14605
H          H       0.85413   0.73572   0.37739   0.10602
H          H       0.08309   0.57781   0.46703   0.14995
H          H       0.13008   0.64583   0.40566   0.14221
H          H       0.10850   0.55033   0.37061   0.14758
H          H       0.84449   0.27744   0.60521   0.10937
H          H       0.26802   0.14529   0.37367   0.10889
H          H       0.41545   0.91752   0.47336   0.15058
H          H       0.36031   0.86735   0.40143   0.14095
H          H       0.45858   0.89552   0.38202   0.14793
H          H       0.15252   0.72609   0.61198   0.10855
H          H       0.90860   0.61187   0.52584   0.14966
H          H       0.86877   0.62573   0.61976   0.13816
H          H       0.90984   0.53378   0.59572   0.14904
H          H       0.73518   0.85349   0.39101   0.10756
H          H       0.14666   0.26821   0.38847   0.10774
H          H       0.27224   0.85659   0.61597   0.11013
H          H       0.44636   0.08312   0.54766   0.14629
H          H       0.35575   0.12586   0.57374   0.14644
H          H       0.43534   0.12142   0.64272   0.14586
H          H       0.73144   0.14740   0.61851   0.10809
H          H       0.88533   0.35537   0.23471   0.10873
H          H       0.96881   0.57242   0.05904   0.14694
H          H       0.92347   0.62232   0.13623   0.14567
H          H       0.87082   0.60703   0.04662   0.14813
H          H       0.35633   0.12681   0.76591   0.10902
H          H       0.12348   0.64533   0.23726   0.10872
H          H       0.03896   0.42978   0.05524   0.14961
H          H       0.06966   0.38265   0.14290   0.14651
H          H       0.13450   0.38811   0.06233   0.14657
H          H       0.64974   0.89054   0.77739   0.10807
H          H       0.40861   0.96891   0.89873   0.15036
H          H       0.36645   0.87799   0.87331   0.13831
H          H       0.40697   0.89070   0.96840   0.14857
H          H       0.87740   0.64274   0.75924   0.10506
H          H       0.97443   0.41914   0.91665   0.14901
H          H       0.90836   0.36933   0.85432   0.14323
H          H       0.87970   0.39371   0.95093   0.14687
H          H       0.64134   0.11399   0.24137   0.10866
H          H       0.11581   0.34938   0.77271   0.10930
H          H       0.35056   0.87904   0.22377   0.11094
H          H       0.22964   0.89049   0.35117   0.10804
H          H       0.89595   0.77076   0.64880   0.10779
H          H       0.96713   0.91014   0.41279   0.15068
H          H       0.88059   0.87246   0.36908   0.13741
H          H       0.88019   0.96873   0.40692   0.14838
H          H       0.76202   0.11041   0.35704   0.10896
H          H       0.11238   0.22750   0.64895   0.10941
H          H       0.03597   0.06121   0.42353   0.15384
H          H       0.07477   0.14460   0.37640   0.14376
H          H       0.13339   0.05836   0.38829   0.14590
H          H       0.23052   0.11459   0.64736   0.10846
H          H       0.11569   0.77482   0.34996   0.10742
H          H       0.03497   0.92747   0.57763   0.15254
H          H       0.09613   0.85816   0.62595   0.14154
H          H       0.13241   0.95362   0.60543   0.14874
H          H       0.77681   0.88295   0.65172   0.10804
H          H       0.87859   0.22344   0.34966   0.10936
H          H       0.89821   0.14845   0.63143   0.14150
H          H       0.86799   0.05102   0.61183   0.14777
H          H       0.96449   0.08222   0.58867   0.15268
H          H       0.35541   0.24018   0.88098   0.10821
H          H       0.56835   0.05155   0.96698   0.15521
H          H       0.61756   0.13879   0.94176   0.14586
H          H       0.61276   0.05982   0.87432   0.14746
H          H       0.35188   0.76739   0.10647   0.10915
H          H       0.59749   0.88570   0.03841   0.15094
H          H       0.63550   0.86440   0.13335   0.13709
H          H       0.59631   0.95854   0.11256   0.14947
H          H       0.76384   0.63988   0.87341   0.10813
H          H       0.63980   0.23361   0.13077   0.10604
H          H       0.39819   0.12169   0.03854   0.14759
H          H       0.37040   0.08529   0.13184   0.14256
H          H       0.42525   0.02541   0.06903   0.15144
H          H       0.22811   0.35100   0.89235   0.10989
H          H       0.04381   0.57878   0.94106   0.14957
H          H       0.13900   0.61791   0.92907   0.14638
H          H       0.07002   0.61876   0.84937   0.14656
H          H       0.64800   0.76931   0.88633   0.10835
H          H       0.77492   0.35089   0.11330   0.10907
H          H       0.23532   0.64509   0.12143   0.10812
C          C       0.37747   0.01224   0.62451   0.35376
C          C       0.37125   0.90178   0.68980  -0.07758
C          C       0.40493   0.08976   0.59583  -0.47719
C          C       0.00853   0.62612   0.37627   0.35755
C          C       0.89770   0.63381   0.30943  -0.07982
C          C       0.08674   0.59852   0.40621  -0.47852
C          C       0.62354   0.99380   0.62975   0.36029
C          C       0.63246   0.10538   0.69136  -0.07778
C          C       0.59675   0.91442   0.60626  -0.47888
C          C       0.99197   0.37713   0.37633   0.35775
C          C       0.10495   0.37074   0.31711  -0.07805
C          C       0.91356   0.40551   0.40172  -0.47646
C          C       0.37644   0.99025   0.37759   0.36004
C          C       0.36720   0.09654   0.30543  -0.08247
C          C       0.40413   0.91356   0.41011  -0.47821
C          C       0.99552   0.62212   0.61671   0.35673
C          C       0.10648   0.62687   0.68331  -0.07668
C          C       0.91647   0.59712   0.58801  -0.47942
C          C       0.61776   0.00167   0.38236   0.35528
C          C       0.63315   0.89322   0.31680  -0.07533
C          C       0.58360   0.07607   0.41173  -0.47680
C          C       0.00454   0.37624   0.61871   0.35599
C          C       0.89228   0.37362   0.67943  -0.07571
C          C       0.08369   0.40182   0.59317  -0.47796
C          C       0.62423   0.37615   0.00840   0.35823
C          C       0.69007   0.35950   0.90072  -0.07583
C          C       0.59763   0.40762   0.08462  -0.47886
C          C       0.37615   0.37933   0.99731   0.35384
C          C       0.36861   0.31322   0.10727  -0.07465
C          C       0.40465   0.40887   0.92072  -0.47857
C          C       0.37739   0.62131   0.00739   0.35505
C          C       0.30864   0.63173   0.89833  -0.07862
C          C       0.40781   0.59184   0.08442  -0.47827
C          C       0.62573   0.61855   0.98896   0.35556
C          C       0.63769   0.68247   0.09889  -0.07301
C          C       0.59338   0.59017   0.91289  -0.47565
C          C       0.69525   0.62582   0.09771  -0.07864
C          C       0.63125   0.30488   0.90275  -0.07582
C          C       0.31179   0.37064   0.10689  -0.07548
C          C       0.36688   0.68692   0.89704  -0.07223
C          C       0.89805   0.69194   0.36439  -0.07436
C          C       0.89057   0.31747   0.62244  -0.08037
C          C       0.31105   0.10029   0.36204  -0.07337
C          C       0.10738   0.68446   0.62683  -0.07754
C          C       0.68940   0.89512   0.37525  -0.07529
C          C       0.10297   0.31185   0.37217  -0.07670
C          C       0.31474   0.90090   0.63145  -0.07443
C          C       0.68877   0.10386   0.63482  -0.07371
C          C       0.88252   0.50499   0.11929   0.35639
C          C       0.87200   0.39748   0.18878  -0.07342
C          C       0.91262   0.58077   0.08876  -0.47903
C          C       0.50560   0.12482   0.88435   0.35761
C          C       0.39880   0.13888   0.81190  -0.07575
C          C       0.58016   0.09216   0.91843  -0.48076
C          C       0.12166   0.49524   0.12475   0.35518
C          C       0.13538   0.60268   0.19259  -0.07207
C          C       0.08976   0.41997   0.09485  -0.47917
C          C       0.49339   0.87876   0.88006   0.35909
C          C       0.60474   0.87317   0.81778  -0.07559
C          C       0.41468   0.90541   0.90648  -0.47779
C          C       0.88010   0.49062   0.87123   0.35837
C          C       0.86539   0.59904   0.80341  -0.07259
C          C       0.91206   0.41410   0.89994  -0.47917
C          C       0.49227   0.11694   0.12267   0.35556
C          C       0.59866   0.12832   0.19578  -0.07552
C          C       0.41752   0.08593   0.08876  -0.47912
C          C       0.12160   0.50659   0.87498   0.35341
C          C       0.13014   0.39436   0.81464  -0.07775
C          C       0.09230   0.58470   0.89975  -0.47982
C          C       0.50887   0.87020   0.12380   0.35716
C          C       0.39581   0.86363   0.18291  -0.07435
C          C       0.58877   0.89602   0.10087  -0.47897
C          C       0.12436   0.87948   0.50543   0.35807
C          C       0.18770   0.87394   0.39507  -0.07969
C          C       0.09589   0.90610   0.58281  -0.47883
C          C       0.87891   0.87993   0.49517   0.35755
C          C       0.87694   0.81326   0.60515  -0.07503
C          C       0.90285   0.90929   0.41684  -0.47865
C          C       0.87340   0.12378   0.51018   0.35853
C          C       0.80622   0.12735   0.39969  -0.08065
C          C       0.90241   0.10011   0.58972  -0.48010
C          C       0.12004   0.12379   0.49300   0.35652
C          C       0.12795   0.18584   0.60442  -0.07310
C          C       0.08967   0.09574   0.41605  -0.47901
C          C       0.18666   0.13035   0.60342  -0.07986
C          C       0.13144   0.81664   0.39456  -0.07543
C          C       0.81850   0.86898   0.60686  -0.07688
C          C       0.86370   0.18327   0.39625  -0.07537
C          C       0.39814   0.19493   0.86897  -0.07653
C          C       0.39661   0.80812   0.12529  -0.07778
C          C       0.80905   0.59759   0.85994  -0.07887
C          C       0.59784   0.18761   0.14110  -0.07677
C          C       0.18567   0.39506   0.87394  -0.07676
C          C       0.60400   0.81320   0.87166  -0.07902
C          C       0.81746   0.39518   0.12872  -0.07729
C          C       0.19082   0.60252   0.13517  -0.07763
N          N       0.41064   0.97233   0.68551  -0.34950
N          N       0.96771   0.59250   0.31697  -0.34638
N          N       0.59135   0.03583   0.68799  -0.35079
N          N       0.03463   0.41166   0.31981  -0.34839
N          N       0.40818   0.02685   0.31527  -0.35007
N          N       0.03570   0.58771   0.67692  -0.35324
N          N       0.58819   0.96080   0.32119  -0.34789
N          N       0.96447   0.41039   0.67714  -0.35404
N          N       0.68543   0.40449   0.96746  -0.34879
N          N       0.40909   0.31885   0.03793  -0.34995
N          N       0.31521   0.59057   0.96819  -0.34973
N          N       0.59398   0.67793   0.03005  -0.34818
N          N       0.68775   0.58573   0.02790  -0.35117
N          N       0.58998   0.31539   0.97105  -0.35152
N          N       0.31647   0.41198   0.03718  -0.34975
N          N       0.41017   0.68022   0.96609  -0.34762
N          N       0.96823   0.68713   0.40637  -0.34996
N          N       0.96176   0.31908   0.58445  -0.34641
N          N       0.31695   0.03304   0.40749  -0.35201
N          N       0.03707   0.68139   0.58508  -0.35034
N          N       0.67973   0.96382   0.41642  -0.34965
N          N       0.03133   0.31580   0.40920  -0.35196
N          N       0.31870   0.97088   0.59043  -0.35052
N          N       0.68313   0.03315   0.59617  -0.35214
N          N       0.91274   0.46707   0.18288  -0.35160
N          N       0.46699   0.09483   0.82157  -0.35247
N          N       0.09200   0.53475   0.18598  -0.34957
N          N       0.53470   0.91431   0.82302  -0.34726
N          N       0.91007   0.53139   0.81057  -0.34834
N          N       0.53178   0.08380   0.18409  -0.35475
N          N       0.09001   0.46502   0.81526  -0.34896
N          N       0.46687   0.90265   0.18189  -0.34960
N          N       0.18319   0.91330   0.46533  -0.34828
N          N       0.91462   0.82010   0.53437  -0.34924
N          N       0.81243   0.09003   0.47170  -0.35073
N          N       0.08621   0.18174   0.53438  -0.35093
N          N       0.18178   0.09149   0.53271  -0.35452
N          N       0.09179   0.82008   0.46447  -0.35475
N          N       0.81985   0.91084   0.53728  -0.34906
N          N       0.90576   0.18100   0.46625  -0.34978
N          N       0.46573   0.18597   0.91441  -0.34977
N          N       0.46828   0.81218   0.08832  -0.35494
N          N       0.81841   0.52878   0.90264  -0.35208
N          N       0.53051   0.18044   0.09516  -0.34579
N          N       0.18030   0.46619   0.91175  -0.34846
N          N       0.53350   0.81674   0.91077  -0.35381
N          N       0.82415   0.46333   0.08505  -0.34827
N          N       0.18206   0.53451   0.09245  -0.35159

